tests/data/power_flow/handling-of-links-merge-nodes-by-links-1-line/sym_output.json
{
  "version": "1.0",
  "type": "sym_output",
  "is_batch": false,
  "attributes": {},
  "data": {
    "node": [
      {
        "id": 1,
        "energized": 1,
        "u_pu": 0.99893461205632628,
        "u": 10488.813426591425,
        "u_angle": -0.0030211978927815451,
        "p": 0,
        "q": 0
      },
      {
        "id": 2,
        "energized": 1,
        "u_pu": 0.99893461205632628,
        "u": 10488.813426591425,
        "u_angle": -0.0030211978927815451,
        "p": 0,
        "q": 0
      },
      {
        "id": 3,
        "energized": 1,
        "u_pu": 0.99893461205632628,
        "u": 10488.813426591425,
        "u_angle": -0.0030211978927815451,
        "p": 0,
        "q": 0
      },
      {
        "id": 4,
        "energized": 1,
        "u_pu": 0.99893461205632628,
        "u": 10488.813426591425,
        "u_angle": -0.0030211978927815451,
        "p": -10000000,
        "q": -2000000
      },
      {
        "id": 5,
        "energized": 1,
        "u_pu": 0.94103694137535709,
        "u": 9880.8878844412502,
        "u_angle": -0.029928849812710975,
        "p": -19999999.999999974,
        "q": -5000000.0000000298
      }
    ],
    "line": [
      {
        "id": 10,
        "energized": 1,
        "loading": 1.2045861519165633,
        "p_from": -19999999.999999974,
        "q_from": -5000000.0000000298,
        "i_from": 1204.5861519165633,
        "s_from": 20615528.128088284,
        "p_to": 21084404.081517234,
        "q_to": 5541351.8808245007,
        "i_to": 1199.9911394209246,
        "s_to": 21800428.347622391
      }
    ],
    "link": [
      {
        "id": 7,
        "energized": 1,
        "loading": 0,
        "p_from": 31084404.08151723,
        "q_from": 7541351.880824501,
        "i_from": 1760.656509208593,
        "s_from": 31986124.57446917,
        "p_to": -31084404.08151723,
        "q_to": -7541351.880824501,
        "i_to": 1760.656509208593,
        "s_to": 31986124.57446917
      },
      {
        "id": 8,
        "energized": 1,
        "loading": 0,
        "p_from": 21084404.08151723,
        "q_from": 5541351.880824501,
        "i_from": 1199.991139420925,
        "s_from": 21800428.34762239,
        "p_to": -21084404.08151723,
        "q_to": -5541351.880824501,
        "i_to": 1199.991139420925,
        "s_to": 21800428.34762239
      },
      {
        "id": 9,
        "energized": 1,
        "loading": 0,
        "p_from": -10000000,
        "q_from": -2000000,
        "i_from": 561.3447716235415,
        "s_from": 10198039.02718557,
        "p_to": 10000000,
        "q_to": 2000000,
        "i_to": 561.3447716235415,
        "s_to": 10198039.02718557
      }
    ],
    "sym_load": [
      {
        "id": 12,
        "energized": 1,
        "p": 20000000,
        "q": 5000000,
        "i": 1204.5861519165644,
        "s": 20615528.128088303,
        "pf": 0.97014250014533188
      },
      {
        "id": 13,
        "energized": 1,
        "p": 10000000,
        "q": 2000000,
        "i": 561.34477162354142,
        "s": 10198039.027185569,
        "pf": 0.98058067569092022
      }
    ],
    "source": [
      {
        "id": 14,
        "energized": 1,
        "p": 31084404.081517234,
        "q": 7541351.8808245007,
        "i": 1760.6565092085932,
        "s": 31986124.574469168,
        "pf": 0.97180901078364235
      }
    ]
  }
}